13
generated by Juergen Walther
N -56.297 -1.066 23.850
N 9.075 421.719 52.345
N -322.665 160.074 65.376
N -369.729 253.558 38.456
N -94.681 192.873 -257.815
N -163.751 264.837 -204.587
N -154.064 125.883 -181.964
N -140.805 334.136 -421.110
N -146.325 265.536 -352.850
N 55.358 539.349 -204.720
N 11.295 440.108 -172.806
N 3.376 444.014 -300.324
N 354.305 609.079 -358.599
