13
generated by Juergen Walther
N -16.122 -5.142 64.823
N 82.975 92.265 -132.035
N 379.839 102.100 -177.890
N 272.723 1.265 -226.178
N 349.303 -100.440 -477.228
N 325.577 -69.303 -587.769
N 324.328 2.940 -467.244
N 340.563 -204.047 -645.187
N 316.755 -164.425 -591.753
N 350.083 32.574 -867.231
N 344.549 -62.727 -793.691
N 370.468 -105.678 -848.785
N 465.756 162.288 -1039.101
