13
generated by Juergen Walther
N -16.570 -1.872 64.632
N -40.150 37.767 -211.828
N -68.385 -307.150 -320.616
N -44.756 -146.112 -283.226
N -40.683 -118.804 -581.806
N 8.595 -111.485 -685.956
N -0.974 -236.583 -619.098
N -202.537 -52.698 -662.068
N -130.766 -26.340 -635.690
N -193.367 40.034 -930.897
N -192.371 -51.337 -856.454
N -262.930 -31.640 -898.052
N -394.546 -8.465 -1214.732
