13
generated by Juergen Walther
N -14.616 8.409 65.723
N 57.278 191.206 -221.301
N -143.876 145.125 -150.065
N -19.092 83.097 -240.996
N 270.001 265.898 -173.961
N 222.705 315.184 -273.773
N 227.796 361.074 -132.447
N 368.046 366.948 -458.009
N 406.852 301.126 -420.518
N 30.696 314.970 -461.562
N 66.227 239.223 -369.270
N 53.100 341.361 -371.163
N -259.624 71.523 -227.713
