13
generated by Juergen Walther
N -34.034 8.058 52.228
N 35.125 244.120 136.980
N -205.636 209.258 139.279
N -194.792 337.319 128.295
N 191.182 153.022 85.790
N 111.864 234.777 60.004
N 151.815 166.714 171.663
N 185.708 431.118 -53.995
N 135.672 356.741 -9.942
N -58.008 589.018 -128.636
N -86.123 567.201 -18.703
N 20.942 622.543 -55.776
N -26.411 650.518 -363.326
