13
generated by Juergen Walther
N -51.871 4.273 36.812
N 84.045 448.150 -62.261
N -160.684 630.484 183.335
N -185.437 704.376 108.170
N -48.340 644.064 -212.032
N -148.327 684.229 -179.179
N -51.814 615.092 -96.993
N -187.903 573.888 -374.737
N -136.876 571.905 -274.709
N -311.837 885.932 -396.021
N -200.088 886.149 -369.657
N -182.546 797.862 -459.115
N -444.865 623.979 -648.278
