13
generated by Juergen Walther
N -55.637 -1.929 26.591
N 19.642 426.388 -79.426
N -351.187 300.626 160.682
N -405.583 361.543 89.502
N -336.959 95.846 -165.534
N -405.481 185.669 -141.733
N -325.314 105.097 -61.416
N -512.686 14.815 -245.675
N -437.439 49.098 -185.667
N -424.706 124.444 -539.679
N -348.954 128.697 -454.383
N -436.468 51.342 -415.489
N -605.841 -51.659 -619.007
