13
generated by Juergen Walther
N -15.363 3.840 65.253
N 75.529 46.802 7.433
N -162.284 -4.724 -127.821
N -79.014 -49.043 -252.494
N -320.190 -72.976 0.296
N -237.911 -136.674 -55.003
N -278.243 -3.404 -95.999
N -66.694 -147.628 125.378
N -143.806 -100.486 142.366
N -22.485 -423.826 205.379
N -95.821 -321.834 205.536
N -27.425 -301.052 146.007
N 203.276 -471.221 -106.521
