13
generated by Juergen Walther
N -37.839 7.923 49.711
N 14.465 188.515 199.592
N -208.266 231.477 71.948
N -182.102 351.148 75.732
N 161.728 104.992 21.750
N 63.366 175.337 12.010
N 151.398 138.420 115.693
N 78.289 330.548 -148.386
N 53.230 273.210 -59.777
N -141.013 442.445 -271.737
N -207.649 412.252 -178.340
N -117.433 492.565 -190.296
N -22.620 517.331 -527.372
