13
generated by Juergen Walther
N -54.423 -10.487 23.578
N -225.033 144.341 180.049
N -135.956 297.330 -33.033
N -95.893 395.697 6.271
N 128.489 146.669 288.148
N 36.499 180.603 227.980
N 80.699 70.853 284.895
N -103.811 376.123 188.172
N -29.640 301.608 192.349
N -356.196 179.792 252.921
N -258.626 140.545 275.957
N -241.334 276.222 292.723
N -219.793 478.834 609.737
