13
generated by Juergen Walther
N -15.467 8.849 63.778
N 93.182 27.511 105.526
N -14.018 34.848 191.834
N -75.031 -67.768 113.030
N -81.646 285.107 256.899
N -40.492 183.371 303.825
N -110.728 222.244 179.229
N 111.030 207.935 434.304
N 108.449 285.335 388.349
N -91.158 372.316 672.015
N -33.178 361.424 566.027
N -80.397 276.019 609.192
N -37.102 100.151 752.132
