13
generated by Juergen Walther
N -13.272 -11.121 63.312
N 66.356 1.969 -16.974
N -144.861 2.825 44.420
N -238.178 1.489 -102.286
N -461.058 -56.951 180.140
N -397.604 -153.417 207.643
N -366.640 -29.891 133.116
N -380.016 -34.209 453.021
N -438.101 -60.457 377.215
N -280.152 -322.021 574.488
N -309.102 -280.610 456.050
N -239.767 -280.606 485.910
N -123.690 -453.105 776.763
