13
generated by Juergen Walther
N -16.044 -5.156 64.266
N 53.588 10.509 -192.768
N 201.055 94.951 -174.873
N 148.104 -64.815 -194.128
N 179.026 -170.025 -497.450
N 113.146 -124.561 -581.725
N 161.703 -65.268 -461.473
N 73.965 -241.992 -645.040
N 93.710 -203.520 -582.288
N 32.512 -8.197 -853.182
N 70.054 -88.930 -773.542
N 134.773 -100.111 -827.807
N 201.376 149.562 -1030.060
