13
generated by Juergen Walther
N -16.032 7.198 64.802
N 42.264 39.609 -215.889
N -46.297 -36.376 -113.357
N -99.290 -169.903 -129.730
N 96.052 -420.012 78.465
N 190.577 -345.420 68.680
N 69.659 -336.755 153.237
N 390.472 -325.169 31.856
N 349.691 -397.060 15.899
N 274.611 -37.514 0.848
N 176.704 -111.885 8.675
N 233.907 -62.273 92.276
N 329.806 299.920 -48.261
