13
generated by Juergen Walther
N -12.823 -5.803 65.186
N 176.793 63.823 -91.391
N 265.515 318.092 93.592
N 314.387 170.973 63.061
N 586.036 120.524 -83.653
N 616.981 68.949 -182.954
N 510.153 162.957 -173.413
N 738.149 54.681 -72.273
N 664.268 60.002 -88.242
N 910.159 125.680 -268.034
N 830.005 57.978 -208.403
N 874.341 70.131 -145.467
N 962.341 351.289 -322.662
