13
generated by Juergen Walther
N -14.322 -13.025 63.339
N 72.389 -0.355 -31.226
N -98.901 24.849 47.675
N -124.462 160.988 -59.171
N -341.065 101.244 257.150
N -326.878 -15.705 264.958
N -248.850 86.737 191.745
N -297.285 35.278 503.014
N -338.508 66.472 422.846
N -279.771 -281.311 406.696
N -283.905 -158.957 369.156
N -222.951 -192.439 381.780
N -160.967 -525.142 360.215
