13
generated by Juergen Walther
N -52.601 -2.100 37.877
N 72.517 415.176 -127.020
N -220.642 507.427 189.576
N -324.450 557.765 191.200
N -307.798 485.729 -133.661
N -402.852 493.486 -71.317
N -290.142 409.088 -32.466
N -298.075 595.040 -292.594
N -293.096 499.241 -227.989
N -575.150 762.482 -203.804
N -514.012 708.615 -121.330
N -412.075 762.528 -203.727
N -563.459 1063.035 -451.078
