13
generated by Juergen Walther
N -15.745 3.494 64.729
N 38.373 -30.943 -206.535
N 239.939 -288.233 -186.752
N 97.196 -208.911 -240.893
N 275.962 -249.578 -497.893
N 363.112 -208.673 -565.501
N 372.750 -230.478 -426.518
N 235.401 -250.319 -676.236
N 255.066 -208.003 -609.995
N 413.929 -246.011 -874.200
N 359.220 -270.662 -774.330
N 305.984 -293.489 -839.266
N 463.259 -501.277 -1104.622
