13
generated by Juergen Walther
N -21.013 5.120 63.223
N 18.952 29.443 -53.337
N -231.465 50.038 -126.229
N -155.630 41.467 -269.432
N -471.935 135.633 -113.203
N -481.210 19.287 -137.104
N -364.735 107.130 -152.364
N -453.745 -20.119 148.392
N -500.307 46.113 100.695
N -532.403 -291.080 234.070
N -565.900 -210.090 147.129
N -469.472 -219.607 150.649
N -181.971 -399.009 61.510
