13
generated by Juergen Walther
N -17.431 -1.369 64.384
N 51.898 22.204 -157.847
N 300.829 -6.404 -234.167
N 163.544 -95.925 -226.629
N -49.235 -120.803 -410.666
N -73.587 -28.455 -474.895
N 30.673 -52.893 -383.122
N -206.389 -58.788 -502.724
N -148.665 -56.065 -455.701
N -82.851 191.567 -692.343
N -142.046 95.787 -652.366
N -168.005 97.130 -725.858
N -53.475 130.535 -1030.479
