13
generated by Juergen Walther
N -18.115 11.587 62.452
N 91.680 -142.945 9.013
N -103.307 -186.306 132.830
N -215.541 -148.601 53.457
N -370.292 -374.580 364.900
N -278.311 -450.215 344.741
N -282.942 -305.871 322.575
N -352.194 -588.277 510.130
N -409.468 -521.362 503.350
N -569.992 -712.619 282.161
N -503.383 -609.912 278.671
N -482.739 -710.956 234.291
N -558.249 -1018.904 302.005
