13
generated by Juergen Walther
N -8.267 -10.268 65.738
N 9.749 44.490 -183.092
N -75.123 207.263 -343.573
N 83.748 204.234 -377.592
N 33.269 239.601 -686.974
N -54.533 249.421 -765.534
N -23.862 297.956 -629.622
N 24.480 347.766 -943.662
N 67.741 302.288 -874.652
N -184.638 475.220 -932.836
N -127.050 377.134 -880.950
N -86.451 434.873 -885.948
N -179.643 790.227 -805.428
