13
generated by Juergen Walther
N -20.876 -1.729 62.840
N 14.708 20.350 -161.929
N 167.286 -255.472 -397.177
N 135.441 -122.006 -290.926
N 181.898 88.086 -497.909
N 248.629 128.976 -577.380
N 211.919 -7.824 -556.619
N 61.912 219.514 -562.546
N 142.215 200.696 -542.212
N 95.671 392.179 -816.129
N 76.824 283.631 -777.195
N 12.597 325.876 -824.931
N -85.116 425.592 -1065.860
