13
generated by Juergen Walther
N -35.423 17.117 51.687
N -40.640 341.314 28.159
N -57.987 246.089 -169.130
N -90.947 363.158 -189.133
N 313.675 374.989 -38.330
N 211.283 411.580 15.830
N 276.509 279.552 28.063
N 288.936 630.064 120.232
N 277.350 559.878 54.404
N 128.040 765.619 77.655
N 51.084 670.216 69.646
N 58.490 771.263 147.240
N 307.344 707.799 29.701
