13
generated by Juergen Walther
N -48.250 -3.752 45.178
N 182.933 346.146 -229.116
N 346.205 33.955 176.501
N 449.507 16.751 59.168
N 463.454 493.421 106.032
N 410.253 435.681 18.124
N 330.376 441.654 138.663
N 525.686 589.444 -153.926
N 555.919 521.221 -31.264
N 293.357 439.009 -313.554
N 401.465 436.780 -324.769
N 365.509 327.730 -245.978
N 63.879 558.580 -609.333
