13
generated by Juergen Walther
N -53.096 -5.372 33.338
N 51.855 448.033 -105.611
N -346.034 369.854 49.712
N -376.281 397.930 -39.844
N -217.366 201.296 -321.894
N -276.661 290.103 -278.725
N -223.508 173.408 -214.920
N -318.343 355.271 -492.042
N -310.007 283.989 -407.315
N -59.676 577.713 -463.867
N -67.485 470.460 -422.484
N -130.478 451.802 -527.728
N 23.152 563.850 -816.739
