13
generated by Juergen Walther
N -55.422 -7.208 26.069
N -29.410 219.014 281.503
N -284.855 457.741 269.720
N -248.398 501.384 366.649
N 142.775 438.361 197.613
N 31.975 450.087 218.497
N 95.477 379.959 122.406
N -88.198 504.056 410.627
N -31.796 519.268 317.872
N -100.206 188.500 421.374
N -31.211 237.804 358.148
N -92.382 341.514 415.933
N -95.521 328.054 712.405
