13
generated by Juergen Walther
N -45.655 8.659 40.602
N -90.586 135.692 211.379
N -233.627 183.731 -22.623
N -199.637 295.693 -12.722
N 78.203 28.894 226.989
N -1.672 101.821 190.456
N -25.238 -9.151 271.609
N 122.881 287.386 180.478
N 89.019 200.243 236.022
N -172.672 383.027 47.515
N -186.200 307.408 130.114
N -103.456 401.461 191.847
N -144.875 707.366 107.028
