13
generated by Juergen Walther
N -19.328 4.063 63.754
N 25.274 32.139 -3.224
N -127.360 29.806 -242.684
N 15.093 -42.378 -274.440
N -314.724 33.059 -354.115
N -233.259 -53.923 -343.954
N -226.856 88.408 -373.086
N -252.070 -21.207 -59.980
N -312.926 -11.781 -138.096
N -270.941 -296.677 50.087
N -289.697 -199.907 -30.104
N -232.657 -183.343 62.138
N 116.645 -259.241 185.243
