13
generated by Juergen Walther
N -12.412 10.471 65.986
N 18.780 195.298 -215.763
N -111.658 102.247 -150.710
N -42.040 42.079 -279.689
N 312.188 158.340 -292.952
N 255.079 264.853 -300.738
N 282.046 174.896 -188.269
N 393.165 428.542 -418.615
N 390.775 358.201 -449.806
N 100.342 543.010 -293.207
N 80.977 420.119 -288.351
N 137.910 486.068 -218.513
N -193.557 738.205 -124.779
