13
generated by Juergen Walther
N -22.669 6.386 61.456
N 59.510 -41.667 79.027
N -101.699 -40.914 76.583
N -123.976 -87.668 -63.217
N -235.942 196.519 146.418
N -169.638 100.466 169.424
N -252.085 150.431 57.321
N 8.574 91.748 254.555
N -26.979 179.795 242.111
N -128.945 10.550 549.145
N -109.147 114.002 491.062
N -105.189 36.378 423.080
N -35.545 -141.170 263.114
