13
generated by Juergen Walther
N -44.986 -11.489 48.547
N 36.302 140.022 -365.665
N 566.026 213.315 -377.043
N 507.746 344.611 -380.682
N 413.333 218.622 30.578
N 435.623 297.704 -60.107
N 409.616 159.823 -73.694
N 428.051 436.381 174.714
N 495.128 323.762 161.516
N 319.823 587.701 -59.858
N 380.335 585.295 41.525
N 475.548 596.091 -66.901
N 243.811 980.326 214.109
