13
generated by Juergen Walther
N -49.074 -6.182 44.117
N 283.385 279.577 -229.855
N 363.080 -17.474 252.175
N 489.315 10.214 163.933
N 176.370 355.096 238.955
N 246.924 315.737 150.394
N 155.571 223.933 214.918
N 287.380 559.955 127.239
N 256.565 508.072 250.952
N 311.591 273.819 -57.257
N 369.401 369.232 -56.640
N 405.909 316.118 64.984
N 360.629 9.878 -404.470
