13
generated by Juergen Walther
N -47.334 -7.967 46.245
N 80.572 232.962 -338.314
N 555.896 136.147 -64.977
N 566.510 280.516 -123.789
N 301.554 275.186 257.985
N 308.142 328.762 149.989
N 344.568 193.191 166.495
N 163.430 505.441 263.292
N 255.183 442.496 342.204
N 184.988 449.828 -31.056
N 139.447 540.348 22.780
N 277.235 532.742 63.581
N 52.010 471.758 -421.990
