13
generated by Juergen Walther
N1 -32.149 -5.043 52.699
N2 119.678 117.247 3.729
N3 73.009 205.355 29.922
N4 163.096 108.356 87.879
N5 316.628 334.870 -121.213
N6 327.546 399.319 -21.620
N7 353.928 268.442 26.638
N8 436.156 418.111 -198.084
N9 414.291 483.642 -117.349
N10 383.992 269.706 -80.604
N11 417.892 222.956 28.436
N12 285.723 156.426 18.372
N13 377.270 142.696 129.677
