13
generated by Juergen Walther
N1 -36.183 -5.766 54.867
N2 119.799 293.160 -195.557
N3 435.221 230.223 140.299
N4 437.410 297.415 16.417
N5 159.797 440.552 157.417
N6 102.946 472.662 56.985
N7 146.549 342.042 67.982
N8 -15.240 535.503 214.917
N9 -7.705 529.350 65.097
N10 -125.591 555.885 177.523
N11 -88.220 608.326 267.334
N12 -56.552 708.501 186.358
N13 -288.897 548.144 356.521
